97
CR_PM-3-3-opt; Picture 1
 C    7.30983   21.28230   30.32205
 C    8.55066   21.86115   30.59235
 C    7.09512   19.91601   30.55461
 C    6.21639   22.11921   29.86407
 C    9.54567   21.10023   31.17834
 C    8.09217   19.15203   31.14315
 C    6.40509   22.99131   28.78746
 C    4.97046   22.02690   30.49392
 C    9.30291   19.75587   31.50015
 C    5.32440   23.68950   28.27542
 C    3.89130   22.72968   29.98800
 C   10.27854   19.03320   32.29524
 C    4.05093   23.51916   28.84050
 N   10.11330   17.74443   32.69304
 N   11.40666   19.63347   32.73894
 C    2.87844   23.93787   28.08927
 C   11.21031   17.53584   33.42795
 C   11.97837   18.67161   33.45090
 O    1.74573   23.43297   28.43097
 O    3.05745   24.77223   27.09324
 C   11.63769   16.34142   34.01394
 C   13.22430   18.72057   34.05066
 C   12.91269   16.35468   34.60605
 C   10.92624   15.13425   33.96600
 C   13.69146   17.54043   34.61472
 C   14.12037   19.89510   34.02669
 N   13.46145   15.20718   35.07168
 C   11.51019   13.96788   34.48722
 N   15.03174   17.48025   35.07423
 C   15.42189   19.77219   34.52751
 C   12.80457   14.01786   35.02527
Ru   15.49482   15.49482   35.50518
 C   15.87426   18.54564   35.03343
 N   15.92832   13.46145   35.79282
 N   15.20718   15.92832   37.53855
 N   15.92577   15.03174   33.51975
 N   17.48025   15.92577   35.96826
 C   16.39395   12.91269   34.64532
 C   15.97473   12.80457   36.98214
 C   16.35468   16.39395   38.08731
 C   14.01786   15.97473   38.19543
 C   16.38528   13.69146   33.45957
 C   15.96657   15.87426   32.45436
 C   17.54043   16.38528   37.30854
 C   18.54564   15.96657   35.12574
 C   16.98606   11.63769   34.65858
 C   16.51278   11.51019   37.03212
 C   16.34142   16.98606   39.36231
 C   13.96788   16.51278   39.48981
 C   16.94934   13.22430   32.27943
 C   16.47249   15.42189   31.22781
 C   18.72057   16.94934   37.77570
 C   19.77219   16.47249   35.57811
 C   17.57205   11.21031   33.46416
 C   17.03400   10.92624   35.86575
 C   17.53584   17.57205   39.78969
 C   15.13425   17.03400   40.07376
 C   17.54910   11.97837   32.32839
 C   16.97331   14.12037   31.10490
 C   18.67161   17.54910   39.02163
 C   19.89510   16.97331   36.87963
 N   18.30696   10.11330   33.25557
 N   17.74443   18.30696   40.88670
 N   18.26106   11.40666   31.36653
 N   19.63347   18.26106   39.59334
 C   18.70476   10.27854   31.96680
 C   19.03320   18.70476   40.72146
 C   19.49985    9.30291   31.24413
 C   19.75587   19.49985   41.69709
 C   19.82166    9.54567   29.89977
 C   19.85685    8.09217   31.84797
 C   21.10023   19.82166   41.45433
 C   19.15203   19.85685   42.90783
 C   20.40765    8.55066   29.13885
 C   20.44539    7.09512   31.08399
 C   21.86115   20.40765   42.44934
 C   19.91601   20.44539   43.90488
 C   20.67795    7.30983   29.71770
 C   21.28230   20.67795   43.69017
 C   21.13593    6.21639   28.88079
 C   22.11921   21.13593   44.78361
 C   22.21254    6.40509   28.00869
 C   20.50608    4.97046   28.97310
 C   22.99131   22.21254   44.59491
 C   22.02690   20.50608   46.02954
 C   22.72458    5.32440   27.31050
 C   21.01200    3.89130   28.27032
 C   23.68950   22.72458   45.67560
 C   22.72968   21.01200   47.10870
 C   22.15950    4.05093   27.48084
 C   23.51916   22.15950   46.94907
 C   22.91073    2.87844   27.06213
 C   23.93787   22.91073   48.12156
 O   22.56903    1.74573   27.56703
 O   23.90676    3.05745   26.22777
 O   23.43297   22.56903   49.25427
 O   23.77223   23.90676   47.94255
