8
p2s6 2-
P       10.80862397       2.74619946       2.42261432
P        8.32753843       3.76002301       3.51702190
S        8.04096943       3.22817024       5.44399648
S       11.70152123       3.13367760       0.66305340
S        8.79564038       2.07604854       2.22353700
S       10.31625364       4.57412467       3.44136630
S       11.90259750       1.64025469       3.72206976
S        6.97790814       4.80544452       2.46022749
