5
Properties=species:S:1:pos:R:3 pbc="F F F"
P        4.67544481       1.92162283      10.05764489
S        3.72424597       0.33107558       9.15167154
S        4.00959159       3.64645393       9.12202025
S        4.34661811       2.03135658      12.08316714
S        6.69964173       1.77446024       9.68895494
